Info: SIMULATION PARAMETERS:
Info: TIMESTEP               1
Info: NUMBER OF STEPS        2000000
Info: STEPS PER CYCLE        20
Info: PERIODIC CELL BASIS 1  50.6504 0 0
Info: PERIODIC CELL BASIS 2  0 52.2876 0
Info: PERIODIC CELL BASIS 3  0 0 54.5306
Info: PERIODIC CELL CENTER   0 0.58 0.39
Info: WRAPPING WATERS AROUND PERIODIC BOUNDARIES ON OUTPUT.
Info: WRAPPING ALL CLUSTERS AROUND PERIODIC BOUNDARIES ON OUTPUT.
Info: WRAPPING TO IMAGE NEAREST TO PERIODIC CELL CENTER.
Info: FIRST LDB TIMESTEP     100
Info: HOM BACKGROUND SCALING 1
Info: PME BACKGROUND SCALING 1
Info: MAX SELF PARTITIONS    50
Info: MAX PAIR PARTITIONS    20
Info: SELF PARTITION ATOMS   125
Info: PAIR PARTITION ATOMS   200
Info: PAIR2 PARTITION ATOMS  400
Info: MIN ATOMS PER PATCH    100
Info: VELOCITY FILE          eq2s4-1.vel
Info: CENTER OF MASS MOVING INITIALLY? NO
Info: DIELECTRIC             1
Info: EXCLUDE                SCALED ONE-FOUR
Info: 1-4 SCALE FACTOR       1
Info: DCD FILENAME           eq3s4-1.dcd
Info: DCD FREQUENCY          500
Info: DCD FIRST STEP         1000500
Info: DCD FILE WILL CONTAIN UNIT CELL DATA
Info: XST FILENAME           eq3s4-1.xst
Info: XST FREQUENCY          1000
Info: NO VELOCITY DCD OUTPUT
Info: OUTPUT FILENAME        eq3s4-1
Info: BINARY OUTPUT FILES WILL BE USED
Info: RESTART FILENAME       eq3s4-1.restart
Info: RESTART FREQUENCY      500
Info: BINARY RESTART FILES WILL BE USED
Info: SWITCHING ACTIVE
Info: SWITCHING ON           10
Info: SWITCHING OFF          12
Info: PAIRLIST DISTANCE      14
Info: PAIRLIST SHRINK RATE   0.01
Info: PAIRLIST GROW RATE     0.01
Info: PAIRLIST TRIGGER       0.3
Info: PAIRLISTS PER CYCLE    2
Info: PAIRLISTS ENABLED
Info: MARGIN                 2
Info: HYDROGEN GROUP CUTOFF  2.5
Info: PATCH DIMENSION        18.5
Info: ENERGY OUTPUT STEPS    500
Info: CROSSTERM ENERGY INCLUDED IN DIHEDRAL
Info: TIMING OUTPUT STEPS    5000
Info: LANGEVIN DYNAMICS ACTIVE
Info: LANGEVIN TEMPERATURE   298
Info: LANGEVIN DAMPING COEFFICIENT IS 5 INVERSE PS
Info: LANGEVIN DYNAMICS NOT APPLIED TO HYDROGENS
Info: LANGEVIN PISTON PRESSURE CONTROL ACTIVE
Info:        TARGET PRESSURE IS 1.01325 BAR
Info:     OSCILLATION PERIOD IS 200 FS
Info:             DECAY TIME IS 100 FS
Info:     PISTON TEMPERATURE IS 298 K
Info:       PRESSURE CONTROL IS ATOM-BASED
Info:    INITIAL STRAIN RATE IS 1.7512e-05 1.7512e-05 1.7512e-05
Info:       CELL FLUCTUATION IS ISOTROPIC
Info: PARTICLE MESH EWALD (PME) ACTIVE
Info: PME TOLERANCE               1e-06
Info: PME EWALD COEFFICIENT       0.257952
Info: PME INTERPOLATION ORDER     4
Info: PME GRID DIMENSIONS         64 64 64
Info: PME MAXIMUM GRID SPACING    1.5
Info: FULL ELECTROSTATIC EVALUATION FREQUENCY      4
Info: USING VERLET I (r-RESPA) MTS SCHEME.
Info: C1 SPLITTING OF LONG RANGE ELECTROSTATICS
Info: PLACING ATOMS IN PATCHES BY HYDROGEN GROUPS
Info: NONBONDED FORCES EVALUATED EVERY 2 STEPS
Info: RANDOM NUMBER SEED     1222708850
Info: USE HYDROGEN BONDS?    NO
Info: COORDINATE PDB         ../S4-1W.pdb
Info: STRUCTURE FILE         ../S4-1W.psf
Info: PARAMETER file: CHARMM format!
Info: PARAMETERS             ../par_all27_prot_na_rea.prm
Info: PARAMETERS             ../par_custom.prm
Info: USING ARITHMETIC MEAN TO COMBINE L-J SIGMA PARAMETERS
Info: BINARY COORDINATES     eq2s4-1.coor
Info: FIRST TIMESTEP         1000000
Info: SUMMARY OF PARAMETERS:
Info: 306 BONDS
Info: 781 ANGLES
Info: 1317 DIHEDRAL
Info: 75 IMPROPER
Info: 6 CROSSTERM
Info: 185 VDW
Info: 0 VDW_PAIRS
Info: STRUCTURE SUMMARY:
Info: 14960 ATOMS
Info: 10187 BONDS
Info: 5945 ANGLES
Info: 1704 DIHEDRALS
Info: 95 IMPROPERS
Info: 37 CROSSTERMS
Info: 0 EXCLUSIONS
Info: 44880 DEGREES OF FREEDOM
Info: 5085 HYDROGEN GROUPS
Info: TOTAL MASS = 90534.9 amu
Info: TOTAL CHARGE = 5.73695e-07 e
Info: REMOVING COM VELOCITY 0.0279069 0.124934 -0.0580343
Info: NONBONDED TABLE R-SQUARED SPACING: 0.0625
Info: NONBONDED TABLE SIZE: 769 POINTS
Info: Adjusted background load on 8 nodes.
Info: 1940 of 2520 computes have background load > 1.49497
Info: 1110 of 2520 computes have background load > 1.79396
Info: 575 of 2520 computes have background load > 2.09295
ETITLE: TS BOND ANGLE DIHED IMPRP ELECT VDW BOUNDARY MISC KINETIC TOTAL TEMP TOTAL2 TOTAL3 TEMPAVG PRESSURE GPRESSURE VOLUME PRESSAVG GPRESSAVG
ENERGY: 1000000 4614.2830 3021.4406 133.5316 22.3281 -61893.2805 6187.0574 0.0000 0.0000 13171.3889 -34743.2510 295.3719 -34535.8884 -34535.8884 295.3719 2889.5456 -347.4842 144418.1788 2889.5456 -347.4842
ENERGY: 1200000 4762.4612 3028.1088 129.0615 24.0737 -62508.4566 6360.3078 0.0000 0.0000 13319.2570 -34885.1867 298.6878 -34679.2294 -34672.2702 297.2684 2216.1910 -61.2108 142762.6151 -55.4167 -58.7316
ENERGY: 1400000 4685.9878 3008.9943 123.3719 20.3049 -62355.9135 6393.5926 0.0000 0.0000 13290.0314 -34833.6306 298.0324 -34630.1070 -34626.2220 297.5932 2045.0288 28.2474 143506.4920 -38.0945 -38.3210
ENERGY: 1600000 4502.9864 3015.6389 129.1682 21.3586 -61970.9668 6217.6616 0.0000 0.0000 13342.3654 -34741.7878 299.2060 -34539.6115 -34537.2139 295.9361 3048.6933 -61.0328 143631.9338 17.1321 15.9672
ENERGY: 1800000 4728.0314 2968.1811 125.8738 17.1320 -62436.6777 6348.3096 0.0000 0.0000 13239.8594 -35009.2904 296.9073 -34805.6594 -34802.2361 296.0542 2273.5417 -38.5404 143234.1015 -24.7963 -23.3142
ENERGY: 2000000 4720.6970 2984.9108 119.0136 19.1163 -62355.8765 6412.3446 0.0000 0.0000 13215.0733 -34884.7210 296.3515 -34673.7422 -34687.9625 297.1974 3104.9170 0.9908 143644.2203 21.0765 23.1873
